-------------------------------------------------------
          Amber 12 SANDER                              2012
          -------------------------------------------------------

  [-O]verwriting output

File Assignments:

 Here is the input file:

 &cntrl
   ntx=5, irest=1,
   ntc=2, ntf=2, tol=0.000001,
   nstlim=100000,
   ntpr=1000, ntwx=1000,
   ntwr=10000,
   dt=0.002, cut=8.,
   ntt=0, ntb=1, ntp=0,
   ioutfm=1,
 /
 &ewald
  dsum_tol=0.000001,
 /

--------------------------------------------------------------------------------
   1.  RESOURCE   USE:
--------------------------------------------------------------------------------

 getting new box info from bottom of inpcrd

 NATOM  =   13543 NTYPES =      15 NBONH =   13083 MBONA  =     468
 NTHETH =     996 MTHETA =     630 NPHIH =    1977 MPHIA  =    1558
 NHPARM =       0 NPARM  =       0 NNB   =   21782 NRES   =    4279
 NBONA  =     468 NTHETA =     630 NPHIA =    1558 NUMBND =      32
 NUMANG =      72 NPTRA  =      34 NATYP =      20 NPHB   =       1
 IFBOX  =       0 NMXRS  =      26 IFCAP =       0 NEXTRA =       0
 NCOPY  =       0

--------------------------------------------------------------------------------
   2.  CONTROL  DATA  FOR  THE  RUN
--------------------------------------------------------------------------------

default_name

General flags:
     imin    =       0, nmropt  =       0

Nature and format of input:
     ntx     =       5, irest   =       1, ntrx    =       1

Nature and format of output:
     ntxo    =       1, ntpr    =    1000, ntrx    =       1, ntwr    =   10000
     iwrap   =       0, ntwx    =    1000, ntwv    =       0, ntwe    =       0
     ioutfm  =       1, ntwprt  =       0, idecomp =       0, rbornstat=      0

Potential function:
     ntf     =       2, ntb     =       1, igb     =       0, nsnb    =      25
     ipol    =       0, gbsa    =       0, iesp    =       0
     dielc   =   1.00000, cut     =   8.00000, intdiel =   1.00000

Frozen or restrained atoms:
     ibelly  =       0, ntr     =       0

Molecular dynamics:
     nstlim  =    100000, nscm    =      1000, nrespa  =         1
     t       =   0.00000, dt      =   0.00200, vlimit  =  -1.00000

SHAKE:
     ntc     =       2, jfastw  =       0
     tol     =   0.00000

Ewald parameters:
     verbose =       0, ew_type =       0, nbflag  =       1, use_pme =       1
     vdwmeth =       1, eedmeth =       1, netfrc  =       1
     Box X =   51.260   Box Y =   51.260   Box Z =   51.260
     Alpha =   90.000   Beta  =   90.000   Gamma =   90.000
     NFFT1 =   56       NFFT2 =   56       NFFT3 =   56
     Cutoff=    8.000   Tol   =0.100E-05
     Ewald Coefficient =  0.39467
     Interpolation order =    4

--------------------------------------------------------------------------------
   3.  ATOMIC COORDINATES AND VELOCITIES
--------------------------------------------------------------------------------

default_name
 begin time read from input coords =    20.000 ps

 Number of triangulated 3-point waters found:     4215

     Sum of charges from parm topology file =  -0.00000459
     Forcing neutrality...

--------------------------------------------------------------------------------
   4.  RESULTS
 NSTEP =     1000   TIME(PS) =      22.000  TEMP(K) =   302.25  PRESS =     0.0
 Etot   =    -35137.6810  EKtot   =      8271.4688  EPtot      =    -43409.1497
 BOND   =       161.4309  ANGLE   =       428.1428  DIHED      =       587.4436
 1-4 NB =       217.7090  1-4 EEL =      1788.1881  VDWAALS    =      5325.9972
 EELEC  =    -51918.0615  EHBOND  =         0.0000  RESTRAINT  =         0.0000
 ------------------------------------------------------------------------------

      A V E R A G E S   O V E R     100 S T E P S

 NSTEP =   100000   TIME(PS) =     220.000  TEMP(K) =   299.82  PRESS =     0.0
 Etot   =    -35186.6967  EKtot   =      8205.1335  EPtot      =    -43391.8302
 BOND   =       175.4487  ANGLE   =       425.1892  DIHED      =       599.9125
 1-4 NB =       203.1085  1-4 EEL =      1779.1503  VDWAALS    =      5185.2430
 EELEC  =    -51759.8824  EHBOND  =         0.0000  RESTRAINT  =         0.0000
 ------------------------------------------------------------------------------

      R M S  F L U C T U A T I O N S

 NSTEP =   100000   TIME(PS) =     220.000  TEMP(K) =     2.07  PRESS =     0.0
 Etot   =        27.4058  EKtot   =        56.7620  EPtot      =        61.4932
 BOND   =        12.8369  ANGLE   =        16.3092  DIHED      =         9.3118
 1-4 NB =         6.1800  1-4 EEL =        18.0999  VDWAALS    =        85.2109
 EELEC  =       113.6615  EHBOND  =         0.0000  RESTRAINT  =         0.0000
 ------------------------------------------------------------------------------
