-------------------------------------------------------
          Amber 12 SANDER                              2012
          -------------------------------------------------------

  [-O]verwriting output

File Assignments:

 Here is the input file:

bpti: 20ps MD with res on bpti
 &cntrl
  imin   = 0,
  irest  = 0,
  ntx    = 1,
  ntb    = 1,
  cut    = 10.0,
  ntr    = 1,
  ntc    = 2,
  ntf    = 2,
  tempi  = 0.0,
  temp0  = 300.0,
  ntt    = 3,
  gamma_ln = 1.0,
  nstlim = 10000, dt = 0.002
  ntpr = 100, ntwx = 100, ntwr = 1000
 /
Keep bpti fixed with weak restraints
10.0
RES 1 58
END
END

--------------------------------------------------------------------------------
   1.  RESOURCE   USE:
--------------------------------------------------------------------------------

 getting new box info from bottom of inpcrd

 NATOM  =   13549 NTYPES =      15 NBONH =   13089 MBONA  =     465
 NTHETH =    1002 MTHETA =     624 NPHIH =    1983 MPHIA  =    1546
 NHPARM =       0 NPARM  =       0 NNB   =   21788 NRES   =    4279
 NBONA  =     465 NTHETA =     624 NPHIA =    1546 NUMBND =      33
 NUMANG =      73 NPTRA  =      33 NATYP =      22 NPHB   =       1
 IFBOX  =       0 NMXRS  =      26 IFCAP =       0 NEXTRA =       0
 NCOPY  =       0

--------------------------------------------------------------------------------
   2.  CONTROL  DATA  FOR  THE  RUN
--------------------------------------------------------------------------------

default_name

General flags:
     imin    =       0, nmropt  =       0

Nature and format of input:
     ntx     =       1, irest   =       0, ntrx    =       1

Nature and format of output:
     ntxo    =       1, ntpr    =     100, ntrx    =       1, ntwr    =    1000
     iwrap   =       0, ntwx    =     100, ntwv    =       0, ntwe    =       0
     ioutfm  =       0, ntwprt  =       0, idecomp =       0, rbornstat=      0

Potential function:
     ntf     =       2, ntb     =       1, igb     =       0, nsnb    =      25
     ipol    =       0, gbsa    =       0, iesp    =       0
     dielc   =   1.00000, cut     =  10.00000, intdiel =   1.00000

Frozen or restrained atoms:
     ibelly  =       0, ntr     =       1
     restraint_wt =   0.00000

Molecular dynamics:
     nstlim  =     10000, nscm    =         0, nrespa  =         1
     t       =   0.00000, dt      =   0.00200, vlimit  =  20.00000

Langevin dynamics temperature regulation:
     ig      =   71277
     temp0   = 300.00000, tempi   =   0.00000, gamma_ln=   1.00000

SHAKE:
     ntc     =       2, jfastw  =       0
     tol     =   0.00001

Ewald parameters:
     verbose =       0, ew_type =       0, nbflag  =       1, use_pme =       1
     vdwmeth =       1, eedmeth =       1, netfrc  =       1
     Box X =   51.260   Box Y =   51.260   Box Z =   51.260
     Alpha =   90.000   Beta  =   90.000   Gamma =   90.000
     NFFT1 =   54       NFFT2 =   54       NFFT3 =   54
     Cutoff=   10.000   Tol   =0.100E-04
     Ewald Coefficient =  0.27511
     Interpolation order =    4

    LOADING THE CONSTRAINED ATOMS AS GROUPS

   5.  REFERENCE ATOM COORDINATES

  defa
    ----- READING GROUP     1; TITLE:
 Keep bpti fixed with weak restraints

     GROUP    1 HAS HARMONIC CONSTRAINTS    10.00000
 GRP    1 RES    1 TO    58
      Number of atoms in this group  =   898
    ----- END OF GROUP READ -----

--------------------------------------------------------------------------------
   3.  ATOMIC COORDINATES AND VELOCITIES
--------------------------------------------------------------------------------

defa
 begin time read from input coords =     0.000 ps

 Number of triangulated 3-point waters found:     4215

     Sum of charges from parm topology file =  -0.00000459
     Forcing neutrality...

--------------------------------------------------------------------------------
   4.  RESULTS
 NSTEP =        0   TIME(PS) =       0.000  TEMP(K) =     0.00  PRESS =     0.0
 Etot   =    -65165.0269  EKtot   =         0.0000  EPtot      =    -65165.0269
 BOND   =        35.9552  ANGLE   =        98.9841  DIHED      =       493.6925
 1-4 NB =       176.8270  1-4 EEL =      1827.4552  VDWAALS    =     11230.2444
 EELEC  =    -79028.1853  EHBOND  =         0.0000  RESTRAINT  =         0.0000
 Ewald error estimate:   0.2397E-03
 ------------------------------------------------------------------------------

      A V E R A G E S   O V E R   10000 S T E P S

 NSTEP =    10000   TIME(PS) =      20.000  TEMP(K) =   282.47  PRESS =     0.0
 Etot   =    -38080.4078  EKtot   =      7734.4072  EPtot      =    -45814.8150
 BOND   =       163.6014  ANGLE   =       369.7901  DIHED      =       555.1034
 1-4 NB =       195.6166  1-4 EEL =      1821.3990  VDWAALS    =      6578.0394
 EELEC  =    -55654.6482  EHBOND  =         0.0000  RESTRAINT  =       156.2834
 EAMBER (non-restraint)  =    -45971.0983
 Ewald error estimate:   0.1041E-03
 ------------------------------------------------------------------------------

      R M S  F L U C T U A T I O N S

 NSTEP =    10000   TIME(PS) =      20.000  TEMP(K) =    44.37  PRESS =     0.0
 Etot   =      3169.7009  EKtot   =      1214.8114  EPtot      =      1968.8701
 BOND   =        22.4874  ANGLE   =        43.4027  DIHED      =        11.3232
 1-4 NB =         5.0198  1-4 EEL =        13.1307  VDWAALS    =       737.5532
 EELEC  =      2603.7992  EHBOND  =         0.0000  RESTRAINT  =        25.8280
 EAMBER (non-restraint)  =      1943.0421
 Ewald error estimate:   0.8219E-04
 ------------------------------------------------------------------------------
